Circuit: * F:\Studies\Sem-1\Electronics\LTspice projects\19thoct(l-r-circuit).asc

Direct Newton iteration for .op point succeeded.

Date: Fri Oct 19 15:28:20 2018
Total elapsed time: 0.068 seconds.

tnom = 27
temp = 27
method = modified trap
totiter = 2113
traniter = 2110
tranpoints = 1056
accept = 1056
rejected = 0
matrix size = 3
fillins = 0
solver = Normal
Matrix Compiler1: 50 bytes object code size  0.0/0.0/[0.0]
Matrix Compiler2: 175 bytes object code size  0.0/0.1/[0.0]

