Circuit: * F:\Studies\Sem-1\Electronics\LTspice projects\Draft5.asc

Direct Newton iteration for .op point succeeded.

Date: Wed Sep 05 23:37:38 2018
Total elapsed time: 0.107 seconds.

tnom = 27
temp = 27
method = modified trap
totiter = 2085
traniter = 2082
tranpoints = 1042
accept = 1042
rejected = 0
matrix size = 9
fillins = 0
solver = Normal
Matrix Compiler1:      15 opcodes  0.1/[0.0]/0.0
Matrix Compiler2: off  [0.1]/0.1/0.1

