Circuit: * D:\LTspice projects\Draft12.asc


Date: Sat Aug 18 15:09:47 2018
Total elapsed time: 0.031 seconds.

tnom = 27
temp = 27
method = trap
totiter = 0
traniter = 0
tranpoints = 0
accept = 0
rejected = 0
matrix size = 3
fillins = 0
solver = Normal

