Circuit: * F:\Studies\Sem-1\Electronics\LTspice projects\Draft3.asc

Direct Newton iteration for .op point succeeded.

Date: Wed Sep 05 23:33:15 2018
Total elapsed time: 0.079 seconds.

tnom = 27
temp = 27
method = modified trap
totiter = 2091
traniter = 2088
tranpoints = 1045
accept = 1045
rejected = 0
matrix size = 3
fillins = 0
solver = Normal
Matrix Compiler1: 50 bytes object code size  0.0/0.0/[0.0]
Matrix Compiler2: off  [0.0]/0.0/0.1

