Circuit: * D:\LTspice projects\Draft7.asc

WARNING: Less than two connections to node N001.  This node is used by E1.
Direct Newton iteration for .op point succeeded.

Date: Fri Aug 10 16:33:44 2018
Total elapsed time: 0.015 seconds.

tnom = 27
temp = 27
method = modified trap
totiter = 2085
traniter = 2082
tranpoints = 1042
accept = 1042
rejected = 0
matrix size = 4
fillins = 0
solver = Normal
Matrix Compiler1:       4 opcodes  0.1/[0.1]/0.1
Matrix Compiler2: 174 bytes object code size  0.1/0.1/[0.1]


