Circuit: * D:\LTspice projects\Draft10.asc

Direct Newton iteration for .op point succeeded.

Date: Tue Aug 14 15:28:17 2018
Total elapsed time: 0.045 seconds.

tnom = 27
temp = 27
method = modified trap
totiter = 2085
traniter = 2082
tranpoints = 1042
accept = 1042
rejected = 0
matrix size = 4
fillins = 0
solver = Normal
Matrix Compiler1: 118 bytes object code size  0.2/0.2/[0.2]
Matrix Compiler2:      23 opcodes  0.2/[0.2]/0.2


