Circuit: * F:\Studies\Sem-1\Electronics\LTspice projects\Draft22.asc

Direct Newton iteration for .op point succeeded.

Date: Wed Sep 05 23:57:58 2018
Total elapsed time: 0.097 seconds.

tnom = 27
temp = 27
method = modified trap
totiter = 2094
traniter = 2082
tranpoints = 1042
accept = 1042
rejected = 0
matrix size = 9
fillins = 2
solver = Normal
Matrix Compiler1: 506 bytes object code size  0.2/0.1/[0.0]
Matrix Compiler2: off  [0.1]/0.1/0.1

