Circuit: * F:\Studies\Sem-1\Electronics\LTspice projects\Draft24.asc


Date: Thu Sep 06 00:01:04 2018
Total elapsed time: 0.066 seconds.

tnom = 27
temp = 27
method = trap
totiter = 0
traniter = 0
tranpoints = 0
accept = 0
rejected = 0
matrix size = 4
fillins = 0
solver = Normal

