Circuit: * F:\Studies\Sem-1\Electronics\LTspice projects\Draft31.asc

.OP point found by inspection.

Date: Fri Oct 19 16:03:29 2018
Total elapsed time: 0.038 seconds.

tnom = 27
temp = 27
method = modified trap
totiter = 2092
traniter = 2092
tranpoints = 1047
accept = 1047
rejected = 0
matrix size = 1
fillins = 0
solver = Normal
Matrix Compiler1: off  0.0/0.0/[0.0]
Matrix Compiler2: 43 bytes object code size  0.0/0.0/[0.0]

