Circuit: * F:\Studies\Sem-1\Electronics\LTspice projects\Draft2.asc

Direct Newton iteration for .op point succeeded.

Date: Wed Sep 05 23:30:28 2018
Total elapsed time: 0.364 seconds.

tnom = 27
temp = 27
method = modified trap
totiter = 2085
traniter = 2082
tranpoints = 1042
accept = 1042
rejected = 0
matrix size = 6
fillins = 1
solver = Normal
Matrix Compiler1:      12 opcodes  0.0/[0.0]/0.1
Matrix Compiler2:      33 opcodes  0.6/[0.0]/0.1

