Circuit: * F:\Studies\Sem-1\Electronics\LTspice projects\Draft6.asc

Direct Newton iteration for .op point succeeded.

Date: Wed Sep 05 23:39:09 2018
Total elapsed time: 0.112 seconds.

tnom = 27
temp = 27
method = modified trap
totiter = 2085
traniter = 2082
tranpoints = 1042
accept = 1042
rejected = 0
matrix size = 3
fillins = 0
solver = Normal
Matrix Compiler1: 50 bytes object code size  0.0/0.0/[0.0]
Matrix Compiler2: 175 bytes object code size  0.0/0.0/[0.0]

