Circuit: * D:\LTspice projects\Draft9.asc

Direct Newton iteration for .op point succeeded.

Date: Fri Aug 10 17:02:16 2018
Total elapsed time: 0.093 seconds.

tnom = 27
temp = 27
method = modified trap
totiter = 2085
traniter = 2082
tranpoints = 1042
accept = 1042
rejected = 0
matrix size = 3
fillins = 0
solver = Normal
Matrix Compiler1: 50 bytes object code size  0.4/0.4/[0.3]
Matrix Compiler2: off  [0.4]/0.4/0.5


