Circuit: * F:\Studies\Sem-1\Electronics\LTspice projects\Draft17.asc


Date: Wed Sep 05 23:45:16 2018
Total elapsed time: 0.105 seconds.

tnom = 27
temp = 27
method = trap
totiter = 0
traniter = 0
tranpoints = 0
accept = 0
rejected = 0
matrix size = 4
fillins = 0
solver = Normal

