Circuit: * F:\Studies\Sem-1\Electronics\LTspice projects\Draft25.asc

Error on line 9 : v1 +v 0 v
	 Unknown parameter "v"
Error on line 10 : v2 0 -v v
	 Unknown parameter "v"
V2: Missing value, assumed 0V @ DC
V1: Missing value, assumed 0V @ DC
Direct Newton iteration for .op point succeeded.

Date: Thu Sep 06 00:02:57 2018
Total elapsed time: 0.062 seconds.

tnom = 27
temp = 27
method = trap
totiter = 7
traniter = 0
tranpoints = 0
accept = 0
rejected = 0
matrix size = 13
fillins = 6
solver = Normal
Matrix Compiler1:      55 opcodes
Matrix Compiler2: 1.33 KB object code size
