Circuit: * D:\LTspice projects\Draft8.asc

Direct Newton iteration for .op point succeeded.

Date: Fri Aug 10 16:46:08 2018
Total elapsed time: 0.046 seconds.

tnom = 27
temp = 27
method = modified trap
totiter = 2085
traniter = 2082
tranpoints = 1042
accept = 1042
rejected = 0
matrix size = 5
fillins = 0
solver = Normal
Matrix Compiler1:       7 opcodes  0.0/[0.0]/0.0
Matrix Compiler2: off  [0.0]/0.1/0.1


