Circuit: * D:\LTspice projects\Draft16.asc


Date: Sat Aug 18 15:47:55 2018
Total elapsed time: 0.032 seconds.

tnom = 27
temp = 27
method = trap
totiter = 0
traniter = 0
tranpoints = 0
accept = 0
rejected = 0
matrix size = 3
fillins = 1
solver = Normal

