Circuit: * F:\Studies\Sem-1\Electronics\LTspice projects\non inverting amp dependent onli on resistor.asc

Direct Newton iteration for .op point succeeded.

Date: Thu Sep 06 00:08:54 2018
Total elapsed time: 0.107 seconds.

tnom = 27
temp = 27
method = modified trap
totiter = 2092
traniter = 2082
tranpoints = 1042
accept = 1042
rejected = 0
matrix size = 11
fillins = 2
solver = Normal
Matrix Compiler1: 570 bytes object code size  0.2/0.0/[0.0]
Matrix Compiler2: off  [0.1]/0.2/0.1

