Circuit: * F:\Studies\Sem-1\Electronics\LTspice projects\opamp inverting.asc

Direct Newton iteration for .op point succeeded.

Date: Thu Sep 06 00:10:12 2018
Total elapsed time: 0.128 seconds.

tnom = 27
temp = 27
method = modified trap
totiter = 4393
traniter = 4383
tranpoints = 1657
accept = 1443
rejected = 214
matrix size = 11
fillins = 2
solver = Normal
Matrix Compiler1: 570 bytes object code size  0.2/0.1/[0.1]
Matrix Compiler2: 1.00 KB object code size  0.1/0.1/[0.0]

